units(length='cm', time='s', quantity='mol', act_energy='cal/mol')

ideal_gas(name='gas',
          elements="C H O N Ar",
          species="""C7H16    H        OH       HO2      H2       H2O
                     H2O2     CO       CO2      HCO      CH2O     CH3O
                     CH       CH2      CH3      CH4      HCCO     CH2CO
                     CH3CO    CH3HCO   C2H      C2H2     C2H3     C2H4
                     C2H5     C2H6     C2H3HCO  C3H3     C3H4     C3H5
                     C3H6     C4H6     C4H8-1   C5H10    C6H6     C6H10
                     C6H12    O        O2       N2       AR""",
          reactions='all',
          transport='Mix',
          initial_state=state(temperature=300.0, pressure=OneAtm))

#-------------------------------------------------------------------------------
# Species data
#-------------------------------------------------------------------------------

species(name='C7H16',
        atoms='C:7 H:16',
        thermo=(NASA([300.00, 1388.00],
                     [-1.49861609E+00,  8.56446777E-02, -5.10778379E-05,
                       1.45322121E-08, -1.45719946E-12, -2.56089558E+04,
                       3.65725432E+01]),
                NASA([1388.00, 5000.00],
                     [ 2.23185204E+01,  3.42916405E-02, -1.12519265E-05,
                       1.69964404E-09, -9.67738146E-14, -3.41933735E+04,
                      -9.26684042E+01])),
        transport=gas_transport(geom='nonlinear',
                                diam=6.31,
                                well_depth=459.98,
                                rot_relax=1.0),
        note='THERM')

species(name='H',
        atoms='H:1',
        thermo=(NASA([300.00, 1000.00],
                     [ 2.50000000E+00,  0.00000000E+00,  0.00000000E+00,
                       0.00000000E+00,  0.00000000E+00,  2.54716270E+04,
                      -4.60117608E-01]),
                NASA([1000.00, 5000.00],
                     [ 2.50000000E+00,  0.00000000E+00,  0.00000000E+00,
                       0.00000000E+00,  0.00000000E+00,  2.54716270E+04,
                      -4.60117638E-01])),
        transport=gas_transport(geom='atom',
                                diam=2.05,
                                well_depth=145.0),
        note='120186')

species(name='OH',
        atoms='H:1 O:1',
        thermo=(NASA([300.00, 1000.00],
                     [ 3.63726592E+00,  1.85091049E-04, -1.67616463E-06,
                       2.38720266E-09, -8.43144185E-13,  3.60678174E+03,
                       1.35886049E+00]),
                NASA([1000.00, 5000.00],
                     [ 2.88273048E+00,  1.01397431E-03, -2.27687707E-07,
                       2.17468370E-11, -5.12630534E-16,  3.88688794E+03,
                       5.59571219E+00])),
        transport=gas_transport(geom='linear',
                                diam=2.75,
                                well_depth=80.0),
        note='121286')

species(name='HO2',
        atoms='H:1 O:2',
        thermo=(NASA([200.00, 1000.00],
                     [ 4.30179801E+00, -4.74912051E-03,  2.11582891E-05,
                      -2.42763894E-08,  9.29225124E-12,  2.94808040E+02,
                       3.71666245E+00]),
                NASA([1000.00, 3500.00],
                     [ 4.01721090E+00,  2.23982013E-03, -6.33658150E-07,
                       1.14246370E-10, -1.07908535E-14,  1.11856713E+02,
                       3.78510215E+00])),
        transport=gas_transport(geom='nonlinear',
                                diam=3.458,
                                well_depth=107.4,
                                rot_relax=1.0),
        note='L5/89')

species(name='H2',
        atoms='H:2',
        thermo=(NASA([300.00, 1000.00],
                     [ 3.29812431E+00,  8.24944174E-04, -8.14301529E-07,
                      -9.47543433E-11,  4.13487224E-13, -1.01252087E+03,
                      -3.29409409E+00]),
                NASA([1000.00, 5000.00],
                     [ 2.99142337E+00,  7.00064411E-04, -5.63382869E-08,
                      -9.23157818E-12,  1.58275179E-15, -8.35033997E+02,
                      -1.35511017E+00])),
        transport=gas_transport(geom='linear',
                                diam=2.92,
                                well_depth=38.0,
                                polar=0.79,
                                rot_relax=280.0),
        note='121286')

species(name='H2O',
        atoms='H:2 O:1',
        thermo=(NASA([300.00, 1000.00],
                     [ 3.38684249E+00,  3.47498246E-03, -6.35469633E-06,
                       6.96858127E-09, -2.50658847E-12, -3.02081133E+04,
                       2.59023285E+00]),
                NASA([1000.00, 5000.00],
                     [ 2.67214561E+00,  3.05629289E-03, -8.73026011E-07,
                       1.20099639E-10, -6.39161787E-15, -2.98992090E+04,
                       6.86281681E+00])),
        transport=gas_transport(geom='nonlinear',
                                diam=2.605,
                                well_depth=572.4,
                                dipole=1.844,
                                rot_relax=4.0),
        note='20387')

species(name='H2O2',
        atoms='H:2 O:2',
        thermo=(NASA([300.00, 1000.00],
                     [ 3.38875365E+00,  6.56922581E-03, -1.48501258E-07,
                      -4.62580552E-09,  2.47151475E-12, -1.76631465E+04,
                       6.78536320E+00]),
                NASA([1000.00, 5000.00],
                     [ 4.57316685E+00,  4.33613639E-03, -1.47468882E-06,
                       2.34890357E-10, -1.43165356E-14, -1.80069609E+04,
                       5.01136959E-01])),
        transport=gas_transport(geom='nonlinear',
                                diam=3.458,
                                well_depth=107.4,
                                rot_relax=3.8),
        note='120186')

species(name='CO',
        atoms='C:1 O:1',
        thermo=(NASA([300.00, 1000.00],
                     [ 3.26245165E+00,  1.51194085E-03, -3.88175522E-06,
                       5.58194424E-09, -2.47495123E-12, -1.43105391E+04,
                       4.84889698E+00]),
                NASA([1000.00, 5000.00],
                     [ 3.02507806E+00,  1.44268852E-03, -5.63082779E-07,
                       1.01858133E-10, -6.91095156E-15, -1.42683496E+04,
                       6.10821772E+00])),
        transport=gas_transport(geom='linear',
                                diam=3.65,
                                well_depth=98.1,
                                polar=1.95,
                                rot_relax=1.8),
        note='121286')

species(name='CO2',
        atoms='C:1 O:2',
        thermo=(NASA([300.00, 1000.00],
                     [ 2.27572465E+00,  9.92207229E-03, -1.04091132E-05,
                       6.86668678E-09, -2.11728009E-12, -4.83731406E+04,
                       1.01884880E+01]),
                NASA([1000.00, 5000.00],
                     [ 4.45362282E+00,  3.14016873E-03, -1.27841054E-06,
                       2.39399667E-10, -1.66903319E-14, -4.89669609E+04,
                      -9.55395877E-01])),
        transport=gas_transport(geom='linear',
                                diam=3.763,
                                well_depth=244.0,
                                polar=2.65,
                                rot_relax=2.1),
        note='121286')

species(name='HCO',
        atoms='C:1 H:1 O:1',
        thermo=(NASA([300.00, 1000.00],
                     [ 2.89832974E+00,  6.19914662E-03, -9.62308423E-06,
                       1.08982494E-08, -4.57488518E-12,  4.15992188E+03,
                       8.98361397E+00]),
                NASA([1000.00, 5000.00],
                     [ 3.55727124E+00,  3.34557286E-03, -1.33500600E-06,
                       2.47057264E-10, -1.71385089E-14,  3.91632446E+03,
                       5.55229950E+00])),
        transport=gas_transport(geom='nonlinear',
                                diam=3.59,
                                well_depth=498.0),
        note='121286')

species(name='CH2O',
        atoms='C:1 H:2 O:1',
        thermo=(NASA([300.00, 1000.00],
                     [ 1.65273118E+00,  1.26314387E-02, -1.88816848E-05,
                       2.05003143E-08, -8.41323712E-12, -1.48654043E+04,
                       1.37848196E+01]),
                NASA([1000.00, 5000.00],
                     [ 2.99560618E+00,  6.68132119E-03, -2.62895469E-06,
                       4.73715289E-10, -3.21251747E-14, -1.53203691E+04,
                       6.91257238E+00])),
        transport=gas_transport(geom='nonlinear',
                                diam=3.59,
                                well_depth=498.0,
                                rot_relax=2.0),
        note='121286')

species(name='CH3O',
        atoms='C:1 H:3 O:1',
        thermo=(NASA([300.00, 1000.00],
                     [ 2.10620403E+00,  7.21659511E-03,  5.33847197E-06,
                      -7.37763628E-09,  2.07561052E-12,  9.78601074E+02,
                       1.31521769E+01]),
                NASA([1000.00, 3000.00],
                     [ 3.77079964E+00,  7.87149742E-03, -2.65638391E-06,
                       3.94443145E-10, -2.11261638E-14,  1.27832520E+02,
                       2.92957497E+00])),
        transport=gas_transport(geom='nonlinear',
                                diam=3.69,
                                well_depth=417.0,
                                dipole=1.7,
                                rot_relax=2.0),
        note='121686')

species(name='CH',
        atoms='C:1 H:1',
        thermo=(NASA([300.00, 1000.00],
                     [ 3.20020247E+00,  2.07287562E-03, -5.13443138E-06,
                       5.73389025E-09, -1.95553318E-12,  7.04525938E+04,
                       3.33158779E+00]),
                NASA([1000.00, 5000.00],
                     [ 2.19622326E+00,  2.34038103E-03, -7.05820128E-07,
                       9.00758218E-11, -3.85504007E-15,  7.08672344E+04,
                       9.17837334E+00])),
        transport=gas_transport(geom='linear',
                                diam=2.75,
                                well_depth=80.0),
        note='121286')

species(name='CH2',
        atoms='C:1 H:2',
        thermo=(NASA([250.00, 1000.00],
                     [ 3.76223707E+00,  1.15981908E-03,  2.48958543E-07,
                       8.80083562E-10, -7.33243544E-13,  4.53679063E+04,
                       1.71257758E+00]),
                NASA([1000.00, 4000.00],
                     [ 3.63640785E+00,  1.93305663E-03, -1.68701632E-07,
                      -1.00989939E-10,  1.80825576E-14,  4.53413398E+04,
                       2.15656066E+00])),
        transport=gas_transport(geom='linear',
                                diam=3.8,
                                well_depth=144.0),
        note='120186')

species(name='CH3',
        atoms='C:1 H:3',
        thermo=(NASA([300.00, 1000.00],
                     [ 2.43044281E+00,  1.11240987E-02, -1.68022034E-05,
                       1.62182872E-08, -5.86495262E-12,  1.64237813E+04,
                       6.78979397E+00]),
                NASA([1000.00, 5000.00],
                     [ 2.84405160E+00,  6.13797410E-03, -2.23034522E-06,
                       3.78516080E-10, -2.45215903E-14,  1.64378086E+04,
                       5.45269728E+00])),
        transport=gas_transport(geom='linear',
                                diam=3.8,
                                well_depth=144.0),
        note='121286')

species(name='CH4',
        atoms='C:1 H:4',
        thermo=(NASA([300.00, 1000.00],
                     [ 7.78741479E-01,  1.74766835E-02, -2.78340904E-05,
                       3.04970804E-08, -1.22393068E-11, -9.82522852E+03,
                       1.37221947E+01]),
                NASA([1000.00, 5000.00],
                     [ 1.68347883E+00,  1.02372356E-02, -3.87512864E-06,
                       6.78558487E-10, -4.50342312E-14, -1.00807871E+04,
                       9.62339497E+00])),
        transport=gas_transport(geom='nonlinear',
                                diam=3.746,
                                well_depth=141.4,
                                polar=2.6,
                                rot_relax=13.0),
        note='121286')

species(name='HCCO',
        atoms='C:2 H:1 O:1',
        thermo=(NASA([300.00, 1000.00],
                     [ 5.04796505E+00,  4.45347792E-03,  2.26828277E-07,
                      -1.48209456E-09,  2.25074150E-13,  1.96589180E+04,
                       4.81843948E-01]),
                NASA([1000.00, 4000.00],
                     [ 6.75807285E+00,  2.00040033E-03, -2.02760731E-07,
                      -1.04113183E-10,  1.96516472E-14,  1.90151328E+04,
                      -9.07126236E+00])),
        transport=gas_transport(geom='nonlinear',
                                diam=2.5,
                                well_depth=150.0,
                                rot_relax=1.0),
        note='32387')

species(name='CH2CO',
        atoms='C:2 H:2 O:1',
        thermo=(NASA([300.00, 1000.00],
                     [ 2.97497082E+00,  1.21187121E-02, -2.34504569E-06,
                      -6.46668497E-09,  3.90564924E-12, -7.63263672E+03,
                       8.67355251E+00]),
                NASA([1000.00, 5000.00],
                     [ 6.03881741E+00,  5.80484048E-03, -1.92095376E-06,
                       2.79448464E-10, -1.45886755E-14, -8.58340234E+03,
                      -7.65758133E+00])),
        transport=gas_transport(geom='nonlinear',
                                diam=3.97,
                                well_depth=436.0,
                                rot_relax=2.0),
        note='121686')

species(name='CH3CO',
        atoms='C:2 H:3 O:1',
        thermo=(NASA([300.00, 1000.00],
                     [ 3.12527847E+00,  9.77822021E-03,  4.52144832E-06,
                      -9.00946162E-09,  3.19371786E-12, -4.10850781E+03,
                       1.12288542E+01]),
                NASA([1000.00, 5000.00],
                     [ 5.61227894E+00,  8.44988599E-03, -2.85414717E-06,
                       4.23837632E-10, -2.26840370E-14, -5.18786328E+03,
                      -3.27494907E+00])),
        transport=gas_transport(geom='nonlinear',
                                diam=3.97,
                                well_depth=436.0,
                                rot_relax=2.0),
        note='120186')

species(name='CH3HCO',
        atoms='C:2 H:4 O:1',
        thermo=(NASA([300.00, 1000.00],
                     [ 2.50569534E+00,  1.33699067E-02,  4.67195332E-06,
                      -1.12814007E-08,  4.26356606E-12, -2.12458867E+04,
                       1.33508873E+01]),
                NASA([1000.00, 5000.00],
                     [ 5.86865044E+00,  1.07942410E-02, -3.64553034E-06,
                       5.41291234E-10, -2.89684421E-14, -2.26456875E+04,
                      -6.01294613E+00])),
        transport=gas_transport(geom='nonlinear',
                                diam=3.97,
                                well_depth=436.0,
                                rot_relax=2.0),
        note='120186')

species(name='C2H',
        atoms='C:2 H:1',
        thermo=(NASA([300.00, 1000.00],
                     [ 3.05066776E+00,  6.05167449E-03, -4.95663426E-06,
                       2.80415913E-09, -8.19333208E-13,  6.63001094E+04,
                       5.95436096E+00]),
                NASA([1000.00, 5000.00],
                     [ 4.42768812E+00,  2.21626856E-03, -6.04895263E-07,
                       9.88251703E-11, -7.35117957E-15,  6.59041484E+04,
                      -1.19944179E+00])),
        transport=gas_transport(geom='linear',
                                diam=4.1,
                                well_depth=209.0,
                                rot_relax=2.5),
        note='20387')

species(name='C2H2',
        atoms='C:2 H:2',
        thermo=(NASA([300.00, 1000.00],
                     [ 2.01356220E+00,  1.51904458E-02, -1.61631888E-05,
                       9.07899178E-09, -1.91274600E-12,  2.61244434E+04,
                       8.80537796E+00]),
                NASA([1000.00, 5000.00],
                     [ 4.43677044E+00,  5.37603907E-03, -1.91281674E-06,
                       3.28637895E-10, -2.15670953E-14,  2.56676641E+04,
                      -2.80033827E+00])),
        transport=gas_transport(geom='linear',
                                diam=4.1,
                                well_depth=209.0,
                                rot_relax=2.5),
        note='121386')

species(name='C2H3',
        atoms='C:2 H:3',
        thermo=(NASA([300.00, 1000.00],
                     [ 2.45927644E+00,  7.37147639E-03,  2.10987287E-06,
                      -1.32164213E-09, -1.18478383E-12,  3.33522500E+04,
                       1.15562019E+01]),
                NASA([1000.00, 5000.00],
                     [ 5.93346787E+00,  4.01774561E-03, -3.96673954E-07,
                      -1.44126655E-10,  2.37864351E-14,  3.18543457E+04,
                      -8.53031254E+00])),
        transport=gas_transport(geom='nonlinear',
                                diam=4.1,
                                well_depth=209.0,
                                rot_relax=1.0),
        note='12787')

species(name='C2H4',
        atoms='C:2 H:4',
        thermo=(NASA([300.00, 1000.00],
                     [-8.61487985E-01,  2.79616285E-02, -3.38867721E-05,
                       2.78515220E-08, -9.73787891E-12,  5.57304590E+03,
                       2.42114868E+01]),
                NASA([1000.00, 5000.00],
                     [ 3.52841878E+00,  1.14851845E-02, -4.41838529E-06,
                       7.84460053E-10, -5.26684849E-14,  4.42828857E+03,
                       2.23038912E+00])),
        transport=gas_transport(geom='nonlinear',
                                diam=3.971,
                                well_depth=280.8,
                                rot_relax=1.5),
        note='121286')

species(name='C2H5',
        atoms='C:2 H:5',
        thermo=(NASA([300.00, 1000.00],
                     [ 2.69070172E+00,  8.71913321E-03,  4.41983866E-06,
                       9.33870314E-10, -3.92777347E-12,  1.28704043E+04,
                       1.21381950E+01]),
                NASA([1000.00, 5000.00],
                     [ 7.19048023E+00,  6.48407731E-03, -6.42806469E-07,
                      -2.34787939E-10,  3.88087728E-14,  1.06745488E+04,
                      -1.47808924E+01])),
        transport=gas_transport(geom='nonlinear',
                                diam=4.302,
                                well_depth=252.3,
                                rot_relax=1.5),
        note='12387')

species(name='C2H6',
        atoms='C:2 H:6',
        thermo=(NASA([300.00, 1000.00],
                     [ 1.46253872E+00,  1.54946670E-02,  5.78050731E-06,
                      -1.25783188E-08,  4.58626713E-12, -1.12391758E+04,
                       1.44322949E+01]),
                NASA([1000.00, 4000.00],
                     [ 4.82593823E+00,  1.38404286E-02, -4.55725876E-06,
                       6.72496725E-10, -3.59816140E-14, -1.27177930E+04,
                      -5.23950672E+00])),
        transport=gas_transport(geom='nonlinear',
                                diam=4.302,
                                well_depth=252.3,
                                rot_relax=1.5),
        note='121686')

species(name='C2H3HCO',
        atoms='C:3 H:4 O:1',
        thermo=(NASA([300.00, 1378.00],
                     [ 1.79579919E+00,  2.39701736E-02, -1.13561865E-05,
                       1.66265734E-09,  1.44193850E-13, -8.67545444E+03,
                       1.77816824E+01]),
                NASA([1378.00, 5000.00],
                     [ 9.03638358E+00,  1.07173229E-02, -3.72865825E-06,
                       5.85534250E-10, -3.42429200E-14, -1.15747718E+04,
                      -2.24352026E+01])),
        transport=gas_transport(geom='nonlinear',
                                diam=3.97,
                                well_depth=436.0,
                                rot_relax=2.0),
        note='THERM')

species(name='C3H3',
        atoms='C:3 H:3',
        thermo=(NASA([300.00, 1000.00],
                     [ 2.50973225E+00,  1.71038657E-02, -4.57108581E-06,
                      -8.28415736E-09,  5.43622872E-12,  3.70406797E+04,
                       1.10112639E+01]),
                NASA([1000.00, 3000.00],
                     [ 8.09162521E+00,  3.73728504E-03,  1.38866471E-06,
                      -1.22986044E-09,  2.06815847E-13,  3.54377930E+04,
                      -1.82044678E+01])),
        transport=gas_transport(geom='linear',
                                diam=4.76,
                                well_depth=252.0,
                                rot_relax=1.0),
        note='121686')

species(name='C3H4',
        atoms='C:3 H:4',
        thermo=(NASA([300.00, 1000.00],
                     [-2.13196874E-01,  3.35871354E-02, -3.80487036E-05,
                       2.74583787E-08, -8.69004434E-12,  2.16204844E+04,
                       2.02939262E+01]),
                NASA([1000.00, 5000.00],
                     [ 5.72914410E+00,  1.23680448E-02, -4.80562676E-06,
                       8.60136407E-10, -5.81280223E-14,  2.01298418E+04,
                      -9.44866753E+00])),
        transport=gas_transport(geom='linear',
                                diam=4.76,
                                well_depth=252.0,
                                rot_relax=1.0),
        note='40687')

species(name='C3H5',
        atoms='C:3 H:5',
        thermo=(NASA([300.00, 1000.00],
                     [-5.41004002E-01,  2.72841007E-02, -9.63653292E-07,
                      -1.91294625E-08,  9.83941748E-12,  1.51303945E+04,
                       2.60673370E+01]),
                NASA([1000.00, 5000.00],
                     [ 7.90919781E+00,  1.21152550E-02, -4.11758629E-06,
                       6.15667961E-10, -3.32357331E-14,  1.23541563E+04,
                      -1.96723328E+01])),
        transport=gas_transport(geom='nonlinear',
                                diam=4.85,
                                well_depth=260.0,
                                rot_relax=1.0),
        note='120186')

species(name='C3H6',
        atoms='C:3 H:6',
        thermo=(NASA([300.00, 1000.00],
                     [ 1.49330711E+00,  2.09251754E-02,  4.48679384E-06,
                      -1.66891212E-08,  7.15814647E-12,  1.07482642E+03,
                       1.61453400E+01]),
                NASA([1000.00, 5000.00],
                     [ 6.73225689E+00,  1.49083361E-02, -4.94989945E-06,
                       7.21202209E-10, -3.76620427E-14, -9.23570313E+02,
                      -1.33133478E+01])),
        transport=gas_transport(geom='nonlinear',
                                diam=4.982,
                                well_depth=266.8,
                                rot_relax=1.0),
        note='120186')

species(name='C4H6',
        atoms='C:4 H:6',
        thermo=(NASA([200.00, 1000.00],
                     [ 1.33382270E+00,  2.43846640E-02,  2.67164110E-05,
                      -5.78694500E-08,  2.63019310E-11,  1.33484910E+04,
                       1.79562870E+01]),
                NASA([1000.00, 1500.00],
                     [ 1.00106120E+01,  1.13470990E-02,  3.92979650E-06,
                      -5.96406120E-09,  1.54393820E-12,  1.07612770E+04,
                      -2.86622890E+01])),
        transport=gas_transport(geom='nonlinear',
                                diam=5.18,
                                well_depth=357.0,
                                rot_relax=1.0),
        note='120389')

species(name='C4H8-1',
        atoms='C:4 H:8',
        thermo=(NASA([300.00, 1000.00],
                     [ 1.18113800E+00,  3.08533800E-02,  5.08652500E-06,
                      -2.46548900E-08,  1.11101900E-11, -1.79040000E+03,
                       2.10624700E+01]),
                NASA([1000.00, 5000.00],
                     [ 2.05358400E+00,  3.43505100E-02, -1.58832000E-05,
                       3.30896600E-09, -2.53610400E-13, -2.13972300E+03,
                       1.55432000E+01])),
        transport=gas_transport(geom='nonlinear',
                                diam=5.176,
                                well_depth=357.0,
                                rot_relax=1.0),
        note='120386')

species(name='C5H10',
        atoms='C:5 H:10',
        thermo=(NASA([300.00, 1395.00],
                     [-1.36099451E+00,  5.87684877E-02, -3.93332993E-05,
                       1.36933176E-08, -1.93663167E-12, -4.42142034E+03,
                       3.36502744E+01]),
                NASA([1395.00, 5000.00],
                     [ 1.44297201E+01,  2.21766606E-02, -7.30295383E-06,
                       1.10545211E-09, -6.30217057E-14, -9.89148299E+03,
                      -5.11881531E+01])),
        transport=gas_transport(geom='nonlinear',
                                diam=6.31,
                                well_depth=459.98,
                                rot_relax=1.0),
        note='THERM')

species(name='C6H6',
        atoms='C:6 H:6',
        thermo=(NASA([300.00, 1000.00],
                     [-3.13801193E+00,  4.72310297E-02, -2.96220787E-06,
                      -3.26281899E-08,  1.71869186E-11,  8.89003125E+03,
                       3.65757294E+01]),
                NASA([1000.00, 5000.00],
                     [ 1.29107399E+01,  1.72329657E-02, -5.02421062E-06,
                       5.89349680E-10, -1.94752119E-14,  3.66451172E+03,
                      -5.00269928E+01])),
        transport=gas_transport(geom='nonlinear',
                                diam=5.349,
                                well_depth=412.3,
                                rot_relax=1.0),
        note='20387')

species(name='C6H10',
        atoms='C:6 H:10',
        thermo=(NASA([300.00, 1387.00],
                     [-1.53659449E+00,  6.41237930E-02, -4.00376985E-05,
                       1.17809899E-08, -1.22002666E-12,  8.09469829E+03,
                       3.62983411E+01]),
                NASA([1387.00, 5000.00],
                     [ 1.74173949E+01,  2.27755779E-02, -7.55403778E-06,
                       1.14990944E-09, -6.58426784E-14,  1.33721433E+03,
                      -6.63397559E+01])),
        transport=gas_transport(geom='nonlinear',
                                diam=6.31,
                                well_depth=459.98,
                                rot_relax=1.0),
        note='3/2/95THERM')

species(name='C6H12',
        atoms='C:6 H:12',
        thermo=(NASA([300.00, 1393.00],
                     [-1.61766370E+00,  7.06121951E-02, -4.59463766E-05,
                       1.51078239E-08, -1.95270198E-12, -7.29679899E+03,
                       3.66037508E+01]),
                NASA([1393.00, 5000.00],
                     [ 1.78916519E+01,  2.63366813E-02, -8.63074026E-06,
                       1.30253044E-09, -7.41148763E-14, -1.41133109E+04,
                      -6.84867352E+01])),
        transport=gas_transport(geom='nonlinear',
                                diam=6.31,
                                well_depth=459.98,
                                rot_relax=1.0),
        note='THERM')

species(name='O',
        atoms='O:1',
        thermo=(NASA([300.00, 1000.00],
                     [ 2.94642878E+00, -1.63816649E-03,  2.42103170E-06,
                      -1.60284319E-09,  3.89069636E-13,  2.91476445E+04,
                       2.96399498E+00]),
                NASA([1000.00, 5000.00],
                     [ 2.54205966E+00, -2.75506191E-05, -3.10280335E-09,
                       4.55106742E-12, -4.36805150E-16,  2.92308027E+04,
                       4.92030811E+00])),
        transport=gas_transport(geom='atom',
                                diam=2.75,
                                well_depth=80.0),
        note='120186')

species(name='O2',
        atoms='O:2',
        thermo=(NASA([300.00, 1000.00],
                     [ 3.21293640E+00,  1.12748635E-03, -5.75615047E-07,
                       1.31387723E-09, -8.76855392E-13, -1.00524902E+03,
                       6.03473759E+00]),
                NASA([1000.00, 5000.00],
                     [ 3.69757819E+00,  6.13519689E-04, -1.25884199E-07,
                       1.77528148E-11, -1.13643531E-15, -1.23393018E+03,
                       3.18916559E+00])),
        transport=gas_transport(geom='linear',
                                diam=3.458,
                                well_depth=107.4,
                                polar=1.6,
                                rot_relax=3.8),
        note='121386')

species(name='N2',
        atoms='N:2',
        thermo=(NASA([300.00, 1000.00],
                     [ 3.29867697E+00,  1.40824041E-03, -3.96322230E-06,
                       5.64151526E-09, -2.44485487E-12, -1.02089990E+03,
                       3.95037222E+00]),
                NASA([1000.00, 5000.00],
                     [ 2.92664003E+00,  1.48797676E-03, -5.68476082E-07,
                       1.00970378E-10, -6.75335134E-15, -9.22797669E+02,
                       5.98052788E+00])),
        transport=gas_transport(geom='linear',
                                diam=3.621,
                                well_depth=97.53,
                                polar=1.76,
                                rot_relax=4.0),
        note='121286')

species(name='AR',
        atoms='Ar:1',
        thermo=(NASA([300.00, 1000.00],
                     [ 2.50000000E+00,  0.00000000E+00,  0.00000000E+00,
                       0.00000000E+00,  0.00000000E+00, -7.45375000E+02,
                       4.36600065E+00]),
                NASA([1000.00, 5000.00],
                     [ 2.50000000E+00,  0.00000000E+00,  0.00000000E+00,